/*--------------------------------*- C++ -*----------------------------------*\
| =========                 |                                                 |
| \\      /  F ield         | OpenFOAM: The Open Source CFD Toolbox           |
|  \\    /   O peration     | Version:  2.2.2                                 |
|   \\  /    A nd           | Web:      www.OpenFOAM.org                      |
|    \\/     M anipulation  |                                                 |
\*---------------------------------------------------------------------------*/
FoamFile
{
    version     2.0;
    format      ascii;
    class       dictionary;
    object      fvSolution;
}
// * * * * * * * * * * * * * * * * * * * * * * * * * * * * * * * * * * * * * //

solvers
{
    h
    {
        solver           PCG;
        preconditioner   DIC;
        tolerance        1e-6;
        relTol           0.1;
    }

    hFinal
    {
        $h;
        tolerance        1e-6;
        relTol           0;
    }

    elpot
    {
        solver          PCG;
        preconditioner  DIC;
        tolerance       1e-6;
        relTol          0.1;
    }

    elpotFinal
    {
        $elpot
        tolerance       1e-6;
        relTol          0;
    }
}

SIMPLE
{
    nNonOrthogonalCorrectors 1;
}

relaxationFactors
{

    fields
    {
    }

    equations
    {
    }
}

// ************************************************************************* //
